xflr5 v6.10.04

 Calculated polar for: HT12

 1 1 Reynolds number fixed          Mach number fixed         

 xtrf =   1.000 (top)        1.000 (bottom)
 Mach =   0.030     Re =     0.051 e 6     Ncrit =   9.000

  alpha     CL        CD       CDp       Cm    Top Xtr Bot Xtr   Cpmin    Chinge    XCp    
 ------- -------- --------- --------- -------- ------- ------- -------- --------- ---------
 -10.000  -0.5331   0.11224   0.10593   0.0312  1.0000  0.2138  -1.2659   0.0000   0.3065
  -9.000  -0.7381   0.12298   0.11633   0.0517  1.0000  0.2142  -1.7561   0.0000   0.3173
  -8.000  -0.7167   0.10673   0.10018   0.0505  1.0000  0.2507  -1.6960   0.0000   0.3181
  -5.000  -0.5553   0.03442   0.02452  -0.0082  1.0000  0.1304  -2.5055   0.0000   0.2332
  -4.000  -0.4440   0.02409   0.01280  -0.0071  1.0000  0.1836  -2.1625   0.0000   0.2322
  -3.000  -0.3441   0.01708   0.00733  -0.0021  1.0000  0.5088  -1.6640   0.0000   0.2425
  -2.000  -0.2113   0.01366   0.00427  -0.0020  1.0000  1.0000  -1.0065   0.0000   0.2392
  -1.000  -0.1058   0.01336   0.00309  -0.0011  1.0000  1.0000  -0.5717   0.0000   0.2384
   0.000   0.0001   0.01327   0.00273   0.0000  1.0000  1.0000  -0.3039   0.0000   0.2385
   1.000   0.1060   0.01336   0.00309   0.0011  1.0000  1.0000  -0.5719   0.0000   0.2384
   2.000   0.2114   0.01366   0.00428   0.0020  1.0000  1.0000  -1.0075   0.0000   0.2393
   3.000   0.3442   0.01709   0.00733   0.0021  0.5081  1.0000  -1.6651   0.0000   0.2424
   4.000   0.4442   0.02410   0.01282   0.0071  0.1835  1.0000  -2.1630   0.0000   0.2322
   5.000   0.5555   0.03445   0.02454   0.0082  0.1304  1.0000  -2.5055   0.0000   0.2332
  12.000   0.7769   0.16891   0.16200  -0.0640  0.1409  1.0000  -1.7213   0.0000   0.3279
  13.000   0.7944   0.18396   0.17698  -0.0692  0.1247  1.0000  -1.7316   0.0000   0.3319
  14.000   0.8109   0.19728   0.19028  -0.0760  0.1114  1.0000  -1.6956   0.0000   0.3378
  15.000   0.8347   0.21163   0.20459  -0.0827  0.0997  1.0000  -1.6746   0.0000   0.3423
  16.000   0.8665   0.22806   0.22105  -0.0880  0.0884  1.0000  -1.7193   0.0000   0.3439
  17.000   0.8931   0.24111   0.23406  -0.0964  0.0810  1.0000  -1.7158   0.0000   0.3493
  18.000   0.9229   0.25451   0.24748  -0.1048  0.0729  1.0000  -1.7163   0.0000   0.3539
  19.000   0.9549   0.26843   0.26143  -0.1130  0.0655  1.0000  -1.7246   0.0000   0.3574
  20.000   0.9874   0.28234   0.27537  -0.1215  0.0600  1.0000  -1.7157   0.0000   0.3610
  21.000   1.0201   0.29612   0.28918  -0.1304  0.0552  1.0000  -1.7495   0.0000   0.3643
  22.000   1.0528   0.30970   0.30282  -0.1395  0.0504  1.0000  -1.7847   0.0000   0.3676
  23.000   1.0851   0.32355   0.31672  -0.1485  0.0465  1.0000  -1.8151   0.0000   0.3704
  24.000   1.1170   0.33811   0.33139  -0.1572  0.0424  1.0000  -1.8613   0.0000   0.3726
  25.000   1.1488   0.34885   0.34218  -0.1682  0.0396  1.0000  -1.8133   0.0000   0.3765
  26.000   1.1796   0.36120   0.35461  -0.1782  0.0369  1.0000  -1.8688   0.0000   0.3792
  27.000   1.2093   0.37349   0.36701  -0.1879  0.0336  1.0000  -1.9310   0.0000   0.3816
  28.000   1.2386   0.38433   0.37793  -0.1989  0.0320  1.0000  -1.9198   0.0000   0.3846
  29.000   1.2656   0.39652   0.39025  -0.2088  0.0295  1.0000  -1.9670   0.0000   0.3867
  30.000   1.2923   0.40722   0.40104  -0.2201  0.0282  1.0000  -1.9327   0.0000   0.3896


