xflr5 v6.10.04

 Calculated polar for: HT12

 1 1 Reynolds number fixed          Mach number fixed         

 xtrf =   1.000 (top)        1.000 (bottom)
 Mach =   0.030     Re =     0.151 e 6     Ncrit =   9.000

  alpha     CL        CD       CDp       Cm    Top Xtr Bot Xtr   Cpmin    Chinge    XCp    
 ------- -------- --------- --------- -------- ------- ------- -------- --------- ---------
  -5.000  -0.5455   0.02074   0.01213  -0.0060  1.0000  0.0514  -3.1589   0.0000   0.2365
  -4.000  -0.4377   0.01524   0.00639  -0.0044  1.0000  0.0779  -2.4670   0.0000   0.2379
  -3.000  -0.3315   0.01119   0.00348  -0.0036  1.0000  0.2866  -1.7596   0.0000   0.2374
  -2.000  -0.2384   0.00827   0.00263   0.0016  1.0000  0.7910  -1.1203   0.0000   0.2553
  -1.000  -0.1079   0.00777   0.00189  -0.0010  1.0000  1.0000  -0.5868   0.0000   0.2393
   0.000   0.0001   0.00772   0.00166   0.0000  1.0000  1.0000  -0.3045   0.0000   0.2377
   1.000   0.1081   0.00777   0.00189   0.0010  1.0000  1.0000  -0.5870   0.0000   0.2393
   2.000   0.2385   0.00827   0.00263  -0.0015  0.7894  1.0000  -1.1212   0.0000   0.2552
   3.000   0.3316   0.01119   0.00348   0.0036  0.2860  1.0000  -1.7609   0.0000   0.2374
   4.000   0.4378   0.01525   0.00639   0.0044  0.0778  1.0000  -2.4683   0.0000   0.2379
  11.000   0.7605   0.14376   0.13970  -0.0584  0.0490  1.0000  -1.9682   0.0000   0.3225
  12.000   0.7736   0.16002   0.15592  -0.0648  0.0442  1.0000  -1.9243   0.0000   0.3289
  13.000   0.7908   0.17591   0.17177  -0.0712  0.0396  1.0000  -1.8813   0.0000   0.3345
  14.000   0.8122   0.19146   0.18732  -0.0778  0.0352  1.0000  -1.8377   0.0000   0.3395
  15.000   0.8370   0.20686   0.20269  -0.0847  0.0322  1.0000  -1.7911   0.0000   0.3442
  16.000   0.8658   0.22233   0.21818  -0.0906  0.0292  1.0000  -1.9009   0.0000   0.3466


