xflr5 v6.10.04

 Calculated polar for: HT12

 1 1 Reynolds number fixed          Mach number fixed         

 xtrf =   1.000 (top)        1.000 (bottom)
 Mach =   0.030     Re =     0.171 e 6     Ncrit =   9.000

  alpha     CL        CD       CDp       Cm    Top Xtr Bot Xtr   Cpmin    Chinge    XCp    
 ------- -------- --------- --------- -------- ------- ------- -------- --------- ---------
  -8.000  -0.7458   0.09132   0.08777   0.0321  1.0000  0.0616  -2.3344   0.0000   0.2904
  -7.000  -0.7177   0.06712   0.06340   0.0079  1.0000  0.0709  -2.5568   0.0000   0.2587
  -5.000  -0.5452   0.01964   0.01113  -0.0055  1.0000  0.0470  -3.2385   0.0000   0.2372
  -4.000  -0.4379   0.01452   0.00594  -0.0041  1.0000  0.0716  -2.4975   0.0000   0.2385
  -3.000  -0.3310   0.01076   0.00322  -0.0035  1.0000  0.2667  -1.7673   0.0000   0.2377
  -2.000  -0.2323   0.00810   0.00238  -0.0004  1.0000  0.7020  -1.1099   0.0000   0.2471
  -1.000  -0.1081   0.00731   0.00178  -0.0010  1.0000  1.0000  -0.5881   0.0000   0.2395
   0.000   0.0001   0.00726   0.00157   0.0000  1.0000  1.0000  -0.3045   0.0000   0.2377
   1.000   0.1083   0.00731   0.00178   0.0010  1.0000  1.0000  -0.5883   0.0000   0.2395
   2.000   0.2324   0.00811   0.00238   0.0004  0.7008  1.0000  -1.1108   0.0000   0.2470
   3.000   0.3311   0.01076   0.00322   0.0035  0.2661  1.0000  -1.7687   0.0000   0.2377
   4.000   0.4381   0.01452   0.00595   0.0041  0.0715  1.0000  -2.4987   0.0000   0.2385
   5.000   0.5454   0.01965   0.01114   0.0055  0.0470  1.0000  -3.2386   0.0000   0.2372
   6.000   0.6506   0.03106   0.02469   0.0071  0.0433  1.0000  -3.5227   0.0000   0.2361
  22.000   1.0570   0.30896   0.30515  -0.1433  0.0146  1.0000  -1.8501   0.0000   0.3704
  23.000   1.0892   0.32241   0.31864  -0.1524  0.0132  1.0000  -1.8937   0.0000   0.3731
  24.000   1.1211   0.33629   0.33256  -0.1621  0.0126  1.0000  -1.8596   0.0000   0.3761
  25.000   1.1535   0.34908   0.34539  -0.1721  0.0112  1.0000  -1.8945   0.0000   0.3790


