xflr5 v6.10.04

 Calculated polar for: HT12

 1 1 Reynolds number fixed          Mach number fixed         

 xtrf =   1.000 (top)        1.000 (bottom)
 Mach =   0.030     Re =     0.031 e 6     Ncrit =   9.000

  alpha     CL        CD       CDp       Cm    Top Xtr Bot Xtr   Cpmin    Chinge    XCp    
 ------- -------- --------- --------- -------- ------- ------- -------- --------- ---------
 -10.000  -0.7399   0.14378   0.13513   0.0677  1.0000  0.3459  -1.5843   0.0000   0.3381
  -9.000  -0.7105   0.12662   0.11800   0.0689  1.0000  0.4087  -1.5216   0.0000   0.3439
  -8.000  -0.6794   0.11031   0.10176   0.0723  1.0000  0.4984  -1.4898   0.0000   0.3537
  -7.000  -0.6291   0.09307   0.08448   0.0786  1.0000  0.6455  -1.3968   0.0000   0.3725
  -5.000  -0.5710   0.04417   0.03369  -0.0035  1.0000  0.2121  -2.2213   0.0000   0.2422
  -4.000  -0.4594   0.03080   0.01875  -0.0052  1.0000  0.2861  -2.0010   0.0000   0.2373
  -3.000  -0.3746   0.02138   0.01078   0.0073  1.0000  0.6513  -1.6437   0.0000   0.2681
  -2.000  -0.2091   0.01754   0.00531  -0.0019  1.0000  1.0000  -0.9768   0.0000   0.2395
  -1.000  -0.1048   0.01717   0.00388  -0.0011  1.0000  1.0000  -0.5634   0.0000   0.2385
   0.000   0.0001   0.01707   0.00345   0.0000  1.0000  1.0000  -0.3035   0.0000   0.2392
   1.000   0.1050   0.01717   0.00388   0.0011  1.0000  1.0000  -0.5639   0.0000   0.2385
   2.000   0.2092   0.01754   0.00532   0.0019  1.0000  1.0000  -0.9777   0.0000   0.2396
   3.000   0.3747   0.02139   0.01079  -0.0073  0.6501  1.0000  -1.6443   0.0000   0.2680
   4.000   0.4596   0.03082   0.01878   0.0051  0.2859  1.0000  -2.0013   0.0000   0.2373
   5.000   0.5711   0.04420   0.03372   0.0035  0.2121  1.0000  -2.2212   0.0000   0.2423
   6.000   0.6681   0.06952   0.06100  -0.0180  0.2536  1.0000  -2.0439   0.0000   0.2754
   7.000   0.6307   0.09319   0.08460  -0.0788  0.6448  1.0000  -1.3990   0.0000   0.3725
  11.000   0.7514   0.15780   0.14903  -0.0688  0.2980  1.0000  -1.5825   0.0000   0.3377
  12.000   0.7672   0.17213   0.16330  -0.0713  0.2604  1.0000  -1.5690   0.0000   0.3385
  18.000   0.9247   0.25823   0.24931  -0.1043  0.1303  1.0000  -1.6681   0.0000   0.3533
  19.000   0.9591   0.27482   0.26596  -0.1109  0.1171  1.0000  -1.7178   0.0000   0.3550
  20.000   0.9886   0.28596   0.27711  -0.1202  0.1078  1.0000  -1.6945   0.0000   0.3596
  21.000   1.0208   0.29923   0.29044  -0.1288  0.0976  1.0000  -1.7072   0.0000   0.3629
  22.000   1.0540   0.31447   0.30578  -0.1368  0.0887  1.0000  -1.7740   0.0000   0.3651
  23.000   1.0861   0.32876   0.32013  -0.1456  0.0817  1.0000  -1.8120   0.0000   0.3679
  24.000   1.1173   0.34099   0.33245  -0.1554  0.0755  1.0000  -1.8232   0.0000   0.3712
  25.000   1.1481   0.35286   0.34442  -0.1653  0.0696  1.0000  -1.8254   0.0000   0.3743
  26.000   1.1785   0.36368   0.35532  -0.1758  0.0644  1.0000  -1.8397   0.0000   0.3776
  27.000   1.2082   0.37481   0.36655  -0.1863  0.0605  1.0000  -1.8723   0.0000   0.3806
  28.000   1.2367   0.38706   0.37893  -0.1963  0.0568  1.0000  -1.9091   0.0000   0.3830


