xflr5 v6.10.04

 Calculated polar for: HT12

 1 1 Reynolds number fixed          Mach number fixed         

 xtrf =   1.000 (top)        1.000 (bottom)
 Mach =   0.030     Re =     0.111 e 6     Ncrit =   9.000

  alpha     CL        CD       CDp       Cm    Top Xtr Bot Xtr   Cpmin    Chinge    XCp    
 ------- -------- --------- --------- -------- ------- ------- -------- --------- ---------
  -6.000  -0.6502   0.04147   0.03518  -0.0070  1.0000  0.0759  -2.9037   0.0000   0.2367
  -5.000  -0.5467   0.02397   0.01500  -0.0070  1.0000  0.0658  -2.9641   0.0000   0.2347
  -4.000  -0.4376   0.01725   0.00768  -0.0052  1.0000  0.0975  -2.3868   0.0000   0.2361
  -3.000  -0.3333   0.01245   0.00425  -0.0038  1.0000  0.3383  -1.7381   0.0000   0.2370
  -2.000  -0.2144   0.00927   0.00305  -0.0020  1.0000  1.0000  -1.0433   0.0000   0.2395
  -1.000  -0.1074   0.00906   0.00217  -0.0011  1.0000  1.0000  -0.5832   0.0000   0.2390
   0.000   0.0001   0.00899   0.00191   0.0000  1.0000  1.0000  -0.3044   0.0000   0.2379
   1.000   0.1075   0.00906   0.00217   0.0011  1.0000  1.0000  -0.5834   0.0000   0.2390
   2.000   0.2146   0.00927   0.00305   0.0020  1.0000  1.0000  -1.0444   0.0000   0.2395
   3.000   0.3334   0.01245   0.00425   0.0038  0.3377  1.0000  -1.7394   0.0000   0.2370
   4.000   0.4378   0.01726   0.00769   0.0052  0.0974  1.0000  -2.3879   0.0000   0.2361
   5.000   0.5469   0.02398   0.01501   0.0070  0.0657  1.0000  -2.9651   0.0000   0.2347
   9.000   0.7405   0.11320   0.10864  -0.0448  0.0857  1.0000  -2.0185   0.0000   0.3074
  14.000   0.8119   0.19257   0.18776  -0.0765  0.0480  1.0000  -1.8249   0.0000   0.3380
  15.000   0.8380   0.20797   0.20315  -0.0825  0.0426  1.0000  -1.8311   0.0000   0.3414
  16.000   0.8639   0.22259   0.21776  -0.0909  0.0386  1.0000  -1.7959   0.0000   0.3474
  17.000   0.8933   0.23737   0.23253  -0.0991  0.0352  1.0000  -1.7815   0.0000   0.3520
  18.000   0.9244   0.25196   0.24714  -0.1071  0.0320  1.0000  -1.7797   0.0000   0.3559
  19.000   0.9565   0.26672   0.26191  -0.1147  0.0291  1.0000  -1.8087   0.0000   0.3588
  20.000   0.9894   0.28061   0.27583  -0.1238  0.0262  1.0000  -1.7987   0.0000   0.3628
  21.000   1.0223   0.29479   0.29004  -0.1330  0.0245  1.0000  -1.8106   0.0000   0.3664


