xflr5 v6.10.04

 Calculated polar for: HT12

 1 1 Reynolds number fixed          Mach number fixed         

 xtrf =   1.000 (top)        1.000 (bottom)
 Mach =   0.030     Re =     0.131 e 6     Ncrit =   9.000

  alpha     CL        CD       CDp       Cm    Top Xtr Bot Xtr   Cpmin    Chinge    XCp    
 ------- -------- --------- --------- -------- ------- ------- -------- --------- ---------
  -5.000  -0.5456   0.02207   0.01319  -0.0064  1.0000  0.0570  -3.0883   0.0000   0.2358
  -4.000  -0.4375   0.01617   0.00697  -0.0047  1.0000  0.0866  -2.4300   0.0000   0.2371
  -3.000  -0.3322   0.01174   0.00381  -0.0037  1.0000  0.3102  -1.7501   0.0000   0.2371
  -2.000  -0.2298   0.00860   0.00289   0.0010  1.0000  0.9423  -1.0892   0.0000   0.2532
  -1.000  -0.1077   0.00834   0.00201  -0.0010  1.0000  1.0000  -0.5852   0.0000   0.2391
   0.000   0.0001   0.00828   0.00177   0.0000  1.0000  1.0000  -0.3045   0.0000   0.2378
   1.000   0.1078   0.00834   0.00201   0.0010  1.0000  1.0000  -0.5854   0.0000   0.2391
   2.000   0.2304   0.00860   0.00289  -0.0011  0.9396  1.0000  -1.0916   0.0000   0.2536
   3.000   0.3323   0.01174   0.00381   0.0037  0.3095  1.0000  -1.7514   0.0000   0.2371
   4.000   0.4376   0.01617   0.00697   0.0047  0.0865  1.0000  -2.4310   0.0000   0.2371
   6.000   0.6499   0.03610   0.02952   0.0075  0.0580  1.0000  -3.2287   0.0000   0.2357
  14.000   0.8114   0.19197   0.18752  -0.0775  0.0408  1.0000  -1.8177   0.0000   0.3392
  15.000   0.8364   0.20726   0.20280  -0.0842  0.0369  1.0000  -1.7820   0.0000   0.3436
  16.000   0.8656   0.22277   0.21832  -0.0901  0.0333  1.0000  -1.8812   0.0000   0.3462
  17.000   0.8944   0.23707   0.23262  -0.0988  0.0297  1.0000  -1.8502   0.0000   0.3515
  18.000   0.9252   0.25165   0.24720  -0.1075  0.0267  1.0000  -1.8017   0.0000   0.3562
  19.000   0.9571   0.26631   0.26188  -0.1157  0.0249  1.0000  -1.7847   0.0000   0.3598
  20.000   0.9898   0.28052   0.27612  -0.1240  0.0223  1.0000  -1.8384   0.0000   0.3628
  21.000   1.0230   0.29476   0.29039  -0.1335  0.0207  1.0000  -1.8187   0.0000   0.3668
  23.000   1.0886   0.32251   0.31820  -0.1520  0.0173  1.0000  -1.8371   0.0000   0.3729
  24.000   1.1197   0.33597   0.33172  -0.1610  0.0158  1.0000  -1.9002   0.0000   0.3753
  25.000   1.1523   0.34892   0.34471  -0.1714  0.0150  1.0000  -1.8751   0.0000   0.3786
  26.000   1.1835   0.36078   0.35663  -0.1815  0.0134  1.0000  -1.9331   0.0000   0.3812
  27.000   1.2130   0.37294   0.36884  -0.1915  0.0128  1.0000  -1.9749   0.0000   0.3838
  28.000   1.2432   0.38441   0.38038  -0.2023  0.0119  1.0000  -1.9366   0.0000   0.3865
  29.000   1.2706   0.39578   0.39182  -0.2127  0.0109  1.0000  -1.9534   0.0000   0.3889


